DEPTH = 256;
WIDTH = 32;
ADDRESS_RADIX = HEX;
DATA_RADIX = HEX;
CONTENT BEGIN
  0 : 000022B7;
  1 : 00000413;
  2 : 0282A023;
  3 : 0002A303;
  4 : 00835393;
  5 : 0033F393;
  6 : 0072A823;
  7 : 0042AE03;
  8 : 002E7E13;
  9 : FE0E02E3;
  A : 06C000EF;
  B : 0042AE03;
  C : 002E7E13;
  D : FC0E0AE3;
  E : 0002A303;
  F : 0FF37513;
  10 : 00835393;
  11 : 0033F393;
  12 : 00038E63;
  13 : 00100E93;
  14 : 01D38E63;
  15 : 00200E93;
  16 : 01D38E63;
  17 : 00A46433;
  18 : 01C0006F;
  19 : 00A40433;
  1A : 0140006F;
  1B : 40A40433;
  1C : 00C0006F;
  1D : 00A47433;
  1E : 0040006F;
  1F : 0282A023;
  20 : 0042AE03;
  21 : 002E7E13;
  22 : FE0E1CE3;
  23 : 008000EF;
  24 : F79FF06F;
  25 : 00001F37;
  26 : BB8F0F13;
  27 : FFFF0F13;
  28 : FE0F1EE3;
  29 : 00008067;
  [2A..FF] : 00000000;
END;
